* Deltares, D-Flow FM Version 1.2.38.63410, Mar 12 2019, 11:13:33
* Source: https://svn.oss.deltares.nl/repos/delft3d/tags/delft3dfm/63285/
* File creation date: 11:54:07, 18-05-2021                                                                                                                                                                                                                     
** DEBUG  :            0  0.1000020      NOD(KMAX)
** DEBUG  :            6  0.7000140      XK (KMAX), YK (KMAX), ZK (KMAX), KC (KMAX), NMK (KMAX), RNOD(KMAX)
